LAMMPS (23 Jun 2022)
KOKKOS mode is enabled (src/KOKKOS/kokkos.cpp:105)
  will use up to 4 GPU(s) per node
package kokkos
package kokkos neigh half newton off
#LAMMPS input file

# ------------------------ INITIALIZATION ----------------------------
processors    * * *
units         metal
dimension    3
boundary    p    p    p
atom_style   charge
atom_modify map array sort 0 1

#--------------------------- LAMMPS Data File--------------------------

read_data    relaxed_step.lmp #reset_relaxed.lmp # model_4.lmp # pre_strained.lmp # High_sep_Cu_45.lmp # Cu_111_FR_45_MIN.lmp
Reading data file ...
  orthogonal box = (-314.8477 -522.43942 600) to (1109.3869 540.14923 1100)
  reading atoms ...
  37948320 atoms
  reading velocities ...
  37948320 velocities
#read_dump   dump.min_1862000.lammpstrj 1862000 x y z vx vy vz
variable  temp equal 10
variable  temp_init equal 10*2
variable  sratex equal 5e-6 # in 1/ps (0.5 strain after 10ns)
# ------------------------ FORCE FIELDS ------------------------------
pair_style    eam/alloy
pair_coeff    * * Cu01.eam.alloy.txt Cu # Cu

#------------------------- SETTINGS ---------------------------------

#change_box        all x scale 1.015 remap units box

compute csym all centro/atom fcc
#compute peratom all pe/atom

# compute stresses
#compute       sf all stress/atom NULL

#-------------For Lorentz Forces from QEq----------------------------
# Apply forces
#variable qfx atomfile input_fx_new.txt
#variable qfy atomfile input_fy_new.txt
#variable qfz atomfile input_fz_new.txt
#variable qe atom  -(x*v_qfx+y*v_qfy+z*v_qfz)

#fix force_q1 all addforce v_qfx v_qfy v_qfz energy v_qe
#fix_modify force_q1 energy yes

#delete_atoms group exclude
#fix freez hold setforce 0 0 0
#fix_modify force_q2 energy yes
thermo 1000
thermo_style custom step temp pe press lx
thermo_modify flush yes
#min_style fire
#minimize 0.0 1e-4 100000 100000
#--------Thermal Relax---------------------------
velocity all create 20 100 rot no dist gaussian
timestep  0.002
fix 1 all langevin 10 10 5 100
fix ensemble all nve
run 50000
  update every 1 steps, delay 10 steps, check yes
Step          Temp          PotEng         Press            Lx
0   20            -1.3404495e+08 -204.37505      1424.2346
Averages over the last 26 of 51 rows, steps 25000 to 50000:
Temp PotEng Press Lx
10.0002 -1.33996e+08 -249.061 1424.23
Loop time of 461.592 on 32 procs for 50000 steps with 37948320 atoms

unfix ensemble
write_data 10_relaxed_config.lmp
System init for write_data ...
#unfix freez
######################################
## NVT Langevin ##
#variable a loop 50
#label loop

#reset_ids
fix        2 all deform 1 x erate 5e-06 units box remap x

# Write dump file
#dump        shear all custom 500000 dump.min_*.lammpstrj id x y z # vx vy vz

#dump        defect all custom 100 dump.defect_*.lammpstrj id x y z c_csym
#dump_modify defect thresh c_csym <= 10 thresh c_csym > 4

fix         ensemble all nve
run 5000000
Step          Temp          PotEng         Press            Lx
50000   10.001605     -1.3399583e+08 -247.72809      1424.2346
Averages over the last 2501 of 5001 rows, steps 2550000 to 5050000:
Temp PotEng Press Lx
10.0234 -1.33823e+08 -7739.29 1477.64
Loop time of 52284.7 on 32 procs for 5000000 steps with 37948320 atoms

#minimize 0 1.0e-3 100000 100000
unfix 2
#undump shear
#undump defect
unfix ensemble
unfix 1
variable Tf equal 10-200
fix 1 all langevin 10 -190 5 100
fix ensemble all nve
#run 5000000

#next a
#jump in.shear loop

#########################################################
######################################
# SIMULATION DONE
print "All done"
All done
